
Circuit: trabalho laboratorial 1

Doing analysis at TEMP = 27.000000 and TNOM = 27.000000


No. of Data Rows : 1
********************************************
Estado inicial
********************************************
table_TAB
@gb[i] = -2.08664e-04
@id[current] = 1.041397e-03
@r1[i] = 1.992363e-04
@r2[i] = 2.086637e-04
@r3[i] = -9.42740e-06
@r4[i] = 1.200363e-03
@r5[i] = -1.25006e-03
@r6[i] = 1.001127e-03
@r7[i] = 1.001127e-03
v(1) = 5.195199e+00
v(2) = 4.989875e+00
v(3) = 4.556619e+00
v(4) = 5.019215e+00
v(5) = 8.853743e+00
v(6) = -2.01262e+00
v(7) = -3.01963e+00
v(8) = -2.01262e+00
hc#branch = 4.026936e-05
va#branch = -1.99236e-04
vhc#branch = 1.001127e-03
table_END
ngspice-31 done
